raw_files/raw_files_9n/576Bus.raw
 0,    100.00, 33, 0, 0, 60.00       / October 01, 2013 15:59:49


    1,'Bus1',  16.5000,3,   1,   1,   1,1.04000,   0.0000
    2,'Bus 2',  18.0000,2,   1,   1,   1,1.02500,   9.3507
    3,'Bus 3',  13.8000,2,   1,   1,   1,1.02500,   5.1420
    4,'Bus 4', 230.0000,1,   1,   1,   1,1.02531,  -2.2174
    5,'Bus 5', 230.0000,1,   1,   1,   1,0.99972,  -3.6802
    6,'Bus 6', 230.0000,1,   1,   1,   1,1.01225,  -3.5666
    7,'Bus 7', 230.0000,1,   1,   1,   1,1.02683,   3.7961
    8,'Bus 8', 230.0000,1,   1,   1,   1,1.01727,   1.3373
    9,'Bus 9', 230.0000,1,   1,   1,   1,1.03269,   2.4448
    11,'Bus 11',16.5000,2,   1,   1,   1,1.04000,   0.0000
    12,'Bus 12',18.0000,2,   1,   1,   1,1.02500,   9.3507
    13,'Bus 13',13.8000,2,   1,   1,   1,1.02500,   5.1420
    14,'Bus 14',230.0000,1,   1,   1,   1,1.02531,  -2.2174
    15,'Bus 15',230.0000,1,   1,   1,   1,0.99972,  -3.6802
    16,'Bus 16',230.0000,1,   1,   1,   1,1.01225,  -3.5666
    17,'Bus 17',230.0000,1,   1,   1,   1,1.02683,   3.7961
    18,'Bus 18',230.0000,1,   1,   1,   1,1.01727,   1.3373
    19,'Bus 19',230.0000,1,   1,   1,   1,1.03269,   2.4448
    21,'Bus 21',16.5000,2,   1,   1,   1,1.04000,   0.0000
    22,'Bus 22',18.0000,2,   1,   1,   1,1.02500,   9.3507
    23,'Bus 23',13.8000,2,   1,   1,   1,1.02500,   5.1420
    24,'Bus 24',230.0000,1,   1,   1,   1,1.02531,  -2.2174
    25,'Bus 25',230.0000,1,   1,   1,   1,0.99972,  -3.6802
    26,'Bus 26',230.0000,1,   1,   1,   1,1.01225,  -3.5666
    27,'Bus 27',230.0000,1,   1,   1,   1,1.02683,   3.7961
    28,'Bus 28',230.0000,1,   1,   1,   1,1.01727,   1.3373
    29,'Bus 29',230.0000,1,   1,   1,   1,1.03269,   2.4448
    31,'Bus 31',16.5000,2,   1,   1,   1,1.04000,   0.0000
    32,'Bus 32',18.0000,2,   1,   1,   1,1.02500,   9.3507
    33,'Bus 33',13.8000,2,   1,   1,   1,1.02500,   5.1420
    34,'Bus 34',230.0000,1,   1,   1,   1,1.02531,  -2.2174
    35,'Bus 35',230.0000,1,   1,   1,   1,0.99972,  -3.6802
    36,'Bus 36',230.0000,1,   1,   1,   1,1.01225,  -3.5666
    37,'Bus 37',230.0000,1,   1,   1,   1,1.02683,   3.7961
    38,'Bus 38',230.0000,1,   1,   1,   1,1.01727,   1.3373
    39,'Bus 39',230.0000,1,   1,   1,   1,1.03269,   2.4448
    41,'Bus 41',16.5000,2,   1,   1,   1,1.04000,   0.0000
    42,'Bus 42',18.0000,2,   1,   1,   1,1.02500,   9.3507
    43,'Bus 43',13.8000,2,   1,   1,   1,1.02500,   5.1420
    44,'Bus 44',230.0000,1,   1,   1,   1,1.02531,  -2.2174
    45,'Bus 45',230.0000,1,   1,   1,   1,0.99972,  -3.6802
    46,'Bus 46',230.0000,1,   1,   1,   1,1.01225,  -3.5666
    47,'Bus 47',230.0000,1,   1,   1,   1,1.02683,   3.7961
    48,'Bus 48',230.0000,1,   1,   1,   1,1.01727,   1.3373
    49,'Bus 49',230.0000,1,   1,   1,   1,1.03269,   2.4448
    51,'Bus 51',16.5000,2,   1,   1,   1,1.04000,   0.0000
    52,'Bus 52',18.0000,2,   1,   1,   1,1.02500,   9.3507
    53,'Bus 53',13.8000,2,   1,   1,   1,1.02500,   5.1420
    54,'Bus 54',230.0000,1,   1,   1,   1,1.02531,  -2.2174
    55,'Bus 55',230.0000,1,   1,   1,   1,0.99972,  -3.6802
    56,'Bus 56',230.0000,1,   1,   1,   1,1.01225,  -3.5666
    57,'Bus 57',230.0000,1,   1,   1,   1,1.02683,   3.7961
    58,'Bus 58',230.0000,1,   1,   1,   1,1.01727,   1.3373
    59,'Bus 59',230.0000,1,   1,   1,   1,1.03269,   2.4448
    61,'Bus 61',16.5000,2,   1,   1,   1,1.04000,   0.0000
    62,'Bus 62',18.0000,2,   1,   1,   1,1.02500,   9.3507
    63,'Bus 63',13.8000,2,   1,   1,   1,1.02500,   5.1420
    64,'Bus 64',230.0000,1,   1,   1,   1,1.02531,  -2.2174
    65,'Bus 65',230.0000,1,   1,   1,   1,0.99972,  -3.6802
    66,'Bus 66',230.0000,1,   1,   1,   1,1.01225,  -3.5666
    67,'Bus 67',230.0000,1,   1,   1,   1,1.02683,   3.7961
    68,'Bus 68',230.0000,1,   1,   1,   1,1.01727,   1.3373
    69,'Bus 69',230.0000,1,   1,   1,   1,1.03269,   2.4448
    71,'Bus 71',16.5000,2,   1,   1,   1,1.04000,   0.0000
    72,'Bus 72',18.0000,2,   1,   1,   1,1.02500,   9.3507
    73,'Bus 73',13.8000,2,   1,   1,   1,1.02500,   5.1420
    74,'Bus 74',230.0000,1,   1,   1,   1,1.02531,  -2.2174
    75,'Bus 75',230.0000,1,   1,   1,   1,0.99972,  -3.6802
    76,'Bus 76',230.0000,1,   1,   1,   1,1.01225,  -3.5666
    77,'Bus 77',230.0000,1,   1,   1,   1,1.02683,   3.7961
    78,'Bus 78',230.0000,1,   1,   1,   1,1.01727,   1.3373
    79,'Bus 79',230.0000,1,   1,   1,   1,1.03269,   2.4448
    81,'Bus 81',16.5000,2,   1,   1,   1,1.04000,   0.0000
    82,'Bus 82',18.0000,2,   1,   1,   1,1.02500,   9.3507
    83,'Bus 83',13.8000,2,   1,   1,   1,1.02500,   5.1420
    84,'Bus 84',230.0000,1,   1,   1,   1,1.02531,  -2.2174
    85,'Bus 85',230.0000,1,   1,   1,   1,0.99972,  -3.6802
    86,'Bus 86',230.0000,1,   1,   1,   1,1.01225,  -3.5666
    87,'Bus 87',230.0000,1,   1,   1,   1,1.02683,   3.7961
    88,'Bus 88',230.0000,1,   1,   1,   1,1.01727,   1.3373
    89,'Bus 89',230.0000,1,   1,   1,   1,1.03269,   2.4448
    91,'Bus 91',16.5000,2,   1,   1,   1,1.04000,   0.0000
    92,'Bus 92',18.0000,2,   1,   1,   1,1.02500,   9.3507
    93,'Bus 93',13.8000,2,   1,   1,   1,1.02500,   5.1420
    94,'Bus 94',230.0000,1,   1,   1,   1,1.02531,  -2.2174
    95,'Bus 95',230.0000,1,   1,   1,   1,0.99972,  -3.6802
    96,'Bus 96',230.0000,1,   1,   1,   1,1.01225,  -3.5666
    97,'Bus 97',230.0000,1,   1,   1,   1,1.02683,   3.7961
    98,'Bus 98',230.0000,1,   1,   1,   1,1.01727,   1.3373
    99,'Bus 99',230.0000,1,   1,   1,   1,1.03269,   2.4448
    101,'Bus 101',16.5000,2,   1,   1,   1,1.04000,   0.0000
    102,'Bus 102',18.0000,2,   1,   1,   1,1.02500,   9.3507
    103,'Bus 103',13.8000,2,   1,   1,   1,1.02500,   5.1420
    104,'Bus 104',230.0000,1,   1,   1,   1,1.02531,  -2.2174
    105,'Bus 105',230.0000,1,   1,   1,   1,0.99972,  -3.6802
    106,'Bus 106',230.0000,1,   1,   1,   1,1.01225,  -3.5666
    107,'Bus 107',230.0000,1,   1,   1,   1,1.02683,   3.7961
    108,'Bus 108',230.0000,1,   1,   1,   1,1.01727,   1.3373
    109,'Bus 109',230.0000,1,   1,   1,   1,1.03269,   2.4448
    111,'Bus 111',16.5000,2,   1,   1,   1,1.04000,   0.0000
    112,'Bus 112',18.0000,2,   1,   1,   1,1.02500,   9.3507
    113,'Bus 113',13.8000,2,   1,   1,   1,1.02500,   5.1420
    114,'Bus 114',230.0000,1,   1,   1,   1,1.02531,  -2.2174
    115,'Bus 115',230.0000,1,   1,   1,   1,0.99972,  -3.6802
    116,'Bus 116',230.0000,1,   1,   1,   1,1.01225,  -3.5666
    117,'Bus 117',230.0000,1,   1,   1,   1,1.02683,   3.7961
    118,'Bus 118',230.0000,1,   1,   1,   1,1.01727,   1.3373
    119,'Bus 119',230.0000,1,   1,   1,   1,1.03269,   2.4448
    121,'Bus 121',16.5000,2,   1,   1,   1,1.04000,   0.0000
    122,'Bus 122',18.0000,2,   1,   1,   1,1.02500,   9.3507
    123,'Bus 123',13.8000,2,   1,   1,   1,1.02500,   5.1420
    124,'Bus 124',230.0000,1,   1,   1,   1,1.02531,  -2.2174
    125,'Bus 125',230.0000,1,   1,   1,   1,0.99972,  -3.6802
    126,'Bus 126',230.0000,1,   1,   1,   1,1.01225,  -3.5666
    127,'Bus 127',230.0000,1,   1,   1,   1,1.02683,   3.7961
    128,'Bus 128',230.0000,1,   1,   1,   1,1.01727,   1.3373
    129,'Bus 129',230.0000,1,   1,   1,   1,1.03269,   2.4448
    131,'Bus 131',16.5000,2,   1,   1,   1,1.04000,   0.0000
    132,'Bus 132',18.0000,2,   1,   1,   1,1.02500,   9.3507
    133,'Bus 133',13.8000,2,   1,   1,   1,1.02500,   5.1420
    134,'Bus 134',230.0000,1,   1,   1,   1,1.02531,  -2.2174
    135,'Bus 135',230.0000,1,   1,   1,   1,0.99972,  -3.6802
    136,'Bus 136',230.0000,1,   1,   1,   1,1.01225,  -3.5666
    137,'Bus 137',230.0000,1,   1,   1,   1,1.02683,   3.7961
    138,'Bus 138',230.0000,1,   1,   1,   1,1.01727,   1.3373
    139,'Bus 139',230.0000,1,   1,   1,   1,1.03269,   2.4448
    141,'Bus 141',16.5000,2,   1,   1,   1,1.04000,   0.0000
    142,'Bus 142',18.0000,2,   1,   1,   1,1.02500,   9.3507
    143,'Bus 143',13.8000,2,   1,   1,   1,1.02500,   5.1420
    144,'Bus 144',230.0000,1,   1,   1,   1,1.02531,  -2.2174
    145,'Bus 145',230.0000,1,   1,   1,   1,0.99972,  -3.6802
    146,'Bus 146',230.0000,1,   1,   1,   1,1.01225,  -3.5666
    147,'Bus 147',230.0000,1,   1,   1,   1,1.02683,   3.7961
    148,'Bus 148',230.0000,1,   1,   1,   1,1.01727,   1.3373
    149,'Bus 149',230.0000,1,   1,   1,   1,1.03269,   2.4448
    151,'Bus 151',16.5000,2,   1,   1,   1,1.04000,   0.0000
    152,'Bus 152',18.0000,2,   1,   1,   1,1.02500,   9.3507
    153,'Bus 153',13.8000,2,   1,   1,   1,1.02500,   5.1420
    154,'Bus 154',230.0000,1,   1,   1,   1,1.02531,  -2.2174
    155,'Bus 155',230.0000,1,   1,   1,   1,0.99972,  -3.6802
    156,'Bus 156',230.0000,1,   1,   1,   1,1.01225,  -3.5666
    157,'Bus 157',230.0000,1,   1,   1,   1,1.02683,   3.7961
    158,'Bus 158',230.0000,1,   1,   1,   1,1.01727,   1.3373
    159,'Bus 159',230.0000,1,   1,   1,   1,1.03269,   2.4448
    161,'Bus 161',16.5000,2,   1,   1,   1,1.04000,   0.0000
    162,'Bus 162',18.0000,2,   1,   1,   1,1.02500,   9.3507
    163,'Bus 163',13.8000,2,   1,   1,   1,1.02500,   5.1420
    164,'Bus 164',230.0000,1,   1,   1,   1,1.02531,  -2.2174
    165,'Bus 165',230.0000,1,   1,   1,   1,0.99972,  -3.6802
    166,'Bus 166',230.0000,1,   1,   1,   1,1.01225,  -3.5666
    167,'Bus 167',230.0000,1,   1,   1,   1,1.02683,   3.7961
    168,'Bus 168',230.0000,1,   1,   1,   1,1.01727,   1.3373
    169,'Bus 169',230.0000,1,   1,   1,   1,1.03269,   2.4448
    171,'Bus 171',16.5000,2,   1,   1,   1,1.04000,   0.0000
    172,'Bus 172',18.0000,2,   1,   1,   1,1.02500,   9.3507
    173,'Bus 173',13.8000,2,   1,   1,   1,1.02500,   5.1420
    174,'Bus 174',230.0000,1,   1,   1,   1,1.02531,  -2.2174
    175,'Bus 175',230.0000,1,   1,   1,   1,0.99972,  -3.6802
    176,'Bus 176',230.0000,1,   1,   1,   1,1.01225,  -3.5666
    177,'Bus 177',230.0000,1,   1,   1,   1,1.02683,   3.7961
    178,'Bus 178',230.0000,1,   1,   1,   1,1.01727,   1.3373
    179,'Bus 179',230.0000,1,   1,   1,   1,1.03269,   2.4448
    181,'Bus 181',16.5000,2,   1,   1,   1,1.04000,   0.0000
    182,'Bus 182',18.0000,2,   1,   1,   1,1.02500,   9.3507
    183,'Bus 183',13.8000,2,   1,   1,   1,1.02500,   5.1420
    184,'Bus 184',230.0000,1,   1,   1,   1,1.02531,  -2.2174
    185,'Bus 185',230.0000,1,   1,   1,   1,0.99972,  -3.6802
    186,'Bus 186',230.0000,1,   1,   1,   1,1.01225,  -3.5666
    187,'Bus 187',230.0000,1,   1,   1,   1,1.02683,   3.7961
    188,'Bus 188',230.0000,1,   1,   1,   1,1.01727,   1.3373
    189,'Bus 189',230.0000,1,   1,   1,   1,1.03269,   2.4448
    191,'Bus 191',16.5000,2,   1,   1,   1,1.04000,   0.0000
    192,'Bus 192',18.0000,2,   1,   1,   1,1.02500,   9.3507
    193,'Bus 193',13.8000,2,   1,   1,   1,1.02500,   5.1420
    194,'Bus 194',230.0000,1,   1,   1,   1,1.02531,  -2.2174
    195,'Bus 195',230.0000,1,   1,   1,   1,0.99972,  -3.6802
    196,'Bus 196',230.0000,1,   1,   1,   1,1.01225,  -3.5666
    197,'Bus 197',230.0000,1,   1,   1,   1,1.02683,   3.7961
    198,'Bus 198',230.0000,1,   1,   1,   1,1.01727,   1.3373
    199,'Bus 199',230.0000,1,   1,   1,   1,1.03269,   2.4448
    201,'Bus 201',16.5000,2,   1,   1,   1,1.04000,   0.0000
    202,'Bus 202',18.0000,2,   1,   1,   1,1.02500,   9.3507
    203,'Bus 203',13.8000,2,   1,   1,   1,1.02500,   5.1420
    204,'Bus 204',230.0000,1,   1,   1,   1,1.02531,  -2.2174
    205,'Bus 205',230.0000,1,   1,   1,   1,0.99972,  -3.6802
    206,'Bus 206',230.0000,1,   1,   1,   1,1.01225,  -3.5666
    207,'Bus 207',230.0000,1,   1,   1,   1,1.02683,   3.7961
    208,'Bus 208',230.0000,1,   1,   1,   1,1.01727,   1.3373
    209,'Bus 209',230.0000,1,   1,   1,   1,1.03269,   2.4448
    211,'Bus 211',16.5000,2,   1,   1,   1,1.04000,   0.0000
    212,'Bus 212',18.0000,2,   1,   1,   1,1.02500,   9.3507
    213,'Bus 213',13.8000,2,   1,   1,   1,1.02500,   5.1420
    214,'Bus 214',230.0000,1,   1,   1,   1,1.02531,  -2.2174
    215,'Bus 215',230.0000,1,   1,   1,   1,0.99972,  -3.6802
    216,'Bus 216',230.0000,1,   1,   1,   1,1.01225,  -3.5666
    217,'Bus 217',230.0000,1,   1,   1,   1,1.02683,   3.7961
    218,'Bus 218',230.0000,1,   1,   1,   1,1.01727,   1.3373
    219,'Bus 219',230.0000,1,   1,   1,   1,1.03269,   2.4448
    221,'Bus 221',16.5000,2,   1,   1,   1,1.04000,   0.0000
    222,'Bus 222',18.0000,2,   1,   1,   1,1.02500,   9.3507
...
0 / END OF BUS DATA, BEGIN LOAD DATA
    5,'1 ',1,   1,   1,   125.000,    50.000,     0.000,     0.000,     0.000,    -0.000,   1,1
    6,'1 ',1,   1,   1,   90.000,    30.000,     0.000,     0.000,     0.000,    -0.000,   1,1
    8,'1 ',1,   1,   1,   100.000,    35.000,     0.000,     0.000,     0.000,    -0.000,   1,1
    15,'1 ',1,   1,   1,   125.000,    50.000,     0.000,     0.000,     0.000,    -0.000,   1,1
    16,'1 ',1,   1,   1,   90.000,    30.000,     0.000,     0.000,     0.000,    -0.000,   1,1
    18,'1 ',1,   1,   1,   100.000,    35.000,     0.000,     0.000,     0.000,    -0.000,   1,1
    25,'1 ',1,   1,   1,   125.000,    50.000,     0.000,     0.000,     0.000,    -0.000,   1,1
    26,'1 ',1,   1,   1,   90.000,    30.000,     0.000,     0.000,     0.000,    -0.000,   1,1
    28,'1 ',1,   1,   1,   100.000,    35.000,     0.000,     0.000,     0.000,    -0.000,   1,1
    35,'1 ',1,   1,   1,   125.000,    50.000,     0.000,     0.000,     0.000,    -0.000,   1,1
    36,'1 ',1,   1,   1,   90.000,    30.000,     0.000,     0.000,     0.000,    -0.000,   1,1
    38,'1 ',1,   1,   1,   100.000,    35.000,     0.000,     0.000,     0.000,    -0.000,   1,1
    45,'1 ',1,   1,   1,   125.000,    50.000,     0.000,     0.000,     0.000,    -0.000,   1,1
    46,'1 ',1,   1,   1,   90.000,    30.000,     0.000,     0.000,     0.000,    -0.000,   1,1
    48,'1 ',1,   1,   1,   100.000,    35.000,     0.000,     0.000,     0.000,    -0.000,   1,1
    55,'1 ',1,   1,   1,   125.000,    50.000,     0.000,     0.000,     0.000,    -0.000,   1,1
    56,'1 ',1,   1,   1,   90.000,    30.000,     0.000,     0.000,     0.000,    -0.000,   1,1
    58,'1 ',1,   1,   1,   100.000,    35.000,     0.000,     0.000,     0.000,    -0.000,   1,1
    65,'1 ',1,   1,   1,   125.000,    50.000,     0.000,     0.000,     0.000,    -0.000,   1,1
    66,'1 ',1,   1,   1,   90.000,    30.000,     0.000,     0.000,     0.000,    -0.000,   1,1
    68,'1 ',1,   1,   1,   100.000,    35.000,     0.000,     0.000,     0.000,    -0.000,   1,1
    75,'1 ',1,   1,   1,   125.000,    50.000,     0.000,     0.000,     0.000,    -0.000,   1,1
    76,'1 ',1,   1,   1,   90.000,    30.000,     0.000,     0.000,     0.000,    -0.000,   1,1
    78,'1 ',1,   1,   1,   100.000,    35.000,     0.000,     0.000,     0.000,    -0.000,   1,1
    85,'1 ',1,   1,   1,   125.000,    50.000,     0.000,     0.000,     0.000,    -0.000,   1,1
    86,'1 ',1,   1,   1,   90.000,    30.000,     0.000,     0.000,     0.000,    -0.000,   1,1
    88,'1 ',1,   1,   1,   100.000,    35.000,     0.000,     0.000,     0.000,    -0.000,   1,1
    95,'1 ',1,   1,   1,   125.000,    50.000,     0.000,     0.000,     0.000,    -0.000,   1,1
    96,'1 ',1,   1,   1,   90.000,    30.000,     0.000,     0.000,     0.000,    -0.000,   1,1
    98,'1 ',1,   1,   1,   100.000,    35.000,     0.000,     0.000,     0.000,    -0.000,   1,1
    105,'1 ',1,   1,   1,   125.000,    50.000,     0.000,     0.000,     0.000,    -0.000,   1,1
    106,'1 ',1,   1,   1,   90.000,    30.000,     0.000,     0.000,     0.000,    -0.000,   1,1
    108,'1 ',1,   1,   1,   100.000,    35.000,     0.000,     0.000,     0.000,    -0.000,   1,1
    115,'1 ',1,   1,   1,   125.000,    50.000,     0.000,     0.000,     0.000,    -0.000,   1,1
    116,'1 ',1,   1,   1,   90.000,    30.000,     0.000,     0.000,     0.000,    -0.000,   1,1
    118,'1 ',1,   1,   1,   100.000,    35.000,     0.000,     0.000,     0.000,    -0.000,   1,1
    125,'1 ',1,   1,   1,   125.000,    50.000,     0.000,     0.000,     0.000,    -0.000,   1,1
    126,'1 ',1,   1,   1,   90.000,    30.000,     0.000,     0.000,     0.000,    -0.000,   1,1
    128,'1 ',1,   1,   1,   100.000,    35.000,     0.000,     0.000,     0.000,    -0.000,   1,1
    135,'1 ',1,   1,   1,   125.000,    50.000,     0.000,     0.000,     0.000,    -0.000,   1,1
    136,'1 ',1,   1,   1,   90.000,    30.000,     0.000,     0.000,     0.000,    -0.000,   1,1
    138,'1 ',1,   1,   1,   100.000,    35.000,     0.000,     0.000,     0.000,    -0.000,   1,1
    145,'1 ',1,   1,   1,   125.000,    50.000,     0.000,     0.000,     0.000,    -0.000,   1,1
    146,'1 ',1,   1,   1,   90.000,    30.000,     0.000,     0.000,     0.000,    -0.000,   1,1
    148,'1 ',1,   1,   1,   100.000,    35.000,     0.000,     0.000,     0.000,    -0.000,   1,1
    155,'1 ',1,   1,   1,   125.000,    50.000,     0.000,     0.000,     0.000,    -0.000,   1,1
    156,'1 ',1,   1,   1,   90.000,    30.000,     0.000,     0.000,     0.000,    -0.000,   1,1
    158,'1 ',1,   1,   1,   100.000,    35.000,     0.000,     0.000,     0.000,    -0.000,   1,1
    165,'1 ',1,   1,   1,   125.000,    50.000,     0.000,     0.000,     0.000,    -0.000,   1,1
    166,'1 ',1,   1,   1,   90.000,    30.000,     0.000,     0.000,     0.000,    -0.000,   1,1
    168,'1 ',1,   1,   1,   100.000,    35.000,     0.000,     0.000,     0.000,    -0.000,   1,1
    175,'1 ',1,   1,   1,   125.000,    50.000,     0.000,     0.000,     0.000,    -0.000,   1,1
    176,'1 ',1,   1,   1,   90.000,    30.000,     0.000,     0.000,     0.000,    -0.000,   1,1
    178,'1 ',1,   1,   1,   100.000,    35.000,     0.000,     0.000,     0.000,    -0.000,   1,1
    185,'1 ',1,   1,   1,   125.000,    50.000,     0.000,     0.000,     0.000,    -0.000,   1,1
    186,'1 ',1,   1,   1,   90.000,    30.000,     0.000,     0.000,     0.000,    -0.000,   1,1
    188,'1 ',1,   1,   1,   100.000,    35.000,     0.000,     0.000,     0.000,    -0.000,   1,1
    195,'1 ',1,   1,   1,   125.000,    50.000,     0.000,     0.000,     0.000,    -0.000,   1,1
    196,'1 ',1,   1,   1,   90.000,    30.000,     0.000,     0.000,     0.000,    -0.000,   1,1
    198,'1 ',1,   1,   1,   100.000,    35.000,     0.000,     0.000,     0.000,    -0.000,   1,1
    205,'1 ',1,   1,   1,   125.000,    50.000,     0.000,     0.000,     0.000,    -0.000,   1,1
    206,'1 ',1,   1,   1,   90.000,    30.000,     0.000,     0.000,     0.000,    -0.000,   1,1
    208,'1 ',1,   1,   1,   100.000,    35.000,     0.000,     0.000,     0.000,    -0.000,   1,1
    215,'1 ',1,   1,   1,   125.000,    50.000,     0.000,     0.000,     0.000,    -0.000,   1,1
    216,'1 ',1,   1,   1,   90.000,    30.000,     0.000,     0.000,     0.000,    -0.000,   1,1
    218,'1 ',1,   1,   1,   100.000,    35.000,     0.000,     0.000,     0.000,    -0.000,   1,1
    225,'1 ',1,   1,   1,   125.000,    50.000,     0.000,     0.000,     0.000,    -0.000,   1,1
    226,'1 ',1,   1,   1,   90.000,    30.000,     0.000,     0.000,     0.000,    -0.000,   1,1
    228,'1 ',1,   1,   1,   100.000,    35.000,     0.000,     0.000,     0.000,    -0.000,   1,1
    235,'1 ',1,   1,   1,   125.000,    50.000,     0.000,     0.000,     0.000,    -0.000,   1,1
    236,'1 ',1,   1,   1,   90.000,    30.000,     0.000,     0.000,     0.000,    -0.000,   1,1
    238,'1 ',1,   1,   1,   100.000,    35.000,     0.000,     0.000,     0.000,    -0.000,   1,1
    245,'1 ',1,   1,   1,   125.000,    50.000,     0.000,     0.000,     0.000,    -0.000,   1,1
    246,'1 ',1,   1,   1,   90.000,    30.000,     0.000,     0.000,     0.000,    -0.000,   1,1
    248,'1 ',1,   1,   1,   100.000,    35.000,     0.000,     0.000,     0.000,    -0.000,   1,1
    255,'1 ',1,   1,   1,   125.000,    50.000,     0.000,     0.000,     0.000,    -0.000,   1,1
    256,'1 ',1,   1,   1,   90.000,    30.000,     0.000,     0.000,     0.000,    -0.000,   1,1
    258,'1 ',1,   1,   1,   100.000,    35.000,     0.000,     0.000,     0.000,    -0.000,   1,1
    265,'1 ',1,   1,   1,   125.000,    50.000,     0.000,     0.000,     0.000,    -0.000,   1,1
    266,'1 ',1,   1,   1,   90.000,    30.000,     0.000,     0.000,     0.000,    -0.000,   1,1
    268,'1 ',1,   1,   1,   100.000,    35.000,     0.000,     0.000,     0.000,    -0.000,   1,1
    275,'1 ',1,   1,   1,   125.000,    50.000,     0.000,     0.000,     0.000,    -0.000,   1,1
    276,'1 ',1,   1,   1,   90.000,    30.000,     0.000,     0.000,     0.000,    -0.000,   1,1
    278,'1 ',1,   1,   1,   100.000,    35.000,     0.000,     0.000,     0.000,    -0.000,   1,1
    285,'1 ',1,   1,   1,   125.000,    50.000,     0.000,     0.000,     0.000,    -0.000,   1,1
    286,'1 ',1,   1,   1,   90.000,    30.000,     0.000,     0.000,     0.000,    -0.000,   1,1
    288,'1 ',1,   1,   1,   100.000,    35.000,     0.000,     0.000,     0.000,    -0.000,   1,1
    295,'1 ',1,   1,   1,   125.000,    50.000,     0.000,     0.000,     0.000,    -0.000,   1,1
    296,'1 ',1,   1,   1,   90.000,    30.000,     0.000,     0.000,     0.000,    -0.000,   1,1
    298,'1 ',1,   1,   1,   100.000,    35.000,     0.000,     0.000,     0.000,    -0.000,   1,1
    305,'1 ',1,   1,   1,   125.000,    50.000,     0.000,     0.000,     0.000,    -0.000,   1,1
    306,'1 ',1,   1,   1,   90.000,    30.000,     0.000,     0.000,     0.000,    -0.000,   1,1
    308,'1 ',1,   1,   1,   100.000,    35.000,     0.000,     0.000,     0.000,    -0.000,   1,1
    315,'1 ',1,   1,   1,   125.000,    50.000,     0.000,     0.000,     0.000,    -0.000,   1,1
    316,'1 ',1,   1,   1,   90.000,    30.000,     0.000,     0.000,     0.000,    -0.000,   1,1
    318,'1 ',1,   1,   1,   100.000,    35.000,     0.000,     0.000,     0.000,    -0.000,   1,1
    325,'1 ',1,   1,   1,   125.000,    50.000,     0.000,     0.000,     0.000,    -0.000,   1,1
    326,'1 ',1,   1,   1,   90.000,    30.000,     0.000,     0.000,     0.000,    -0.000,   1,1
    328,'1 ',1,   1,   1,   100.000,    35.000,     0.000,     0.000,     0.000,    -0.000,   1,1
    335,'1 ',1,   1,   1,   125.000,    50.000,     0.000,     0.000,     0.000,    -0.000,   1,1
    336,'1 ',1,   1,   1,   90.000,    30.000,     0.000,     0.000,     0.000,    -0.000,   1,1
    338,'1 ',1,   1,   1,   100.000,    35.000,     0.000,     0.000,     0.000,    -0.000,   1,1
    345,'1 ',1,   1,   1,   125.000,    50.000,     0.000,     0.000,     0.000,    -0.000,   1,1
    346,'1 ',1,   1,   1,   90.000,    30.000,     0.000,     0.000,     0.000,    -0.000,   1,1
    348,'1 ',1,   1,   1,   100.000,    35.000,     0.000,     0.000,     0.000,    -0.000,   1,1
    355,'1 ',1,   1,   1,   125.000,    50.000,     0.000,     0.000,     0.000,    -0.000,   1,1
    356,'1 ',1,   1,   1,   90.000,    30.000,     0.000,     0.000,     0.000,    -0.000,   1,1
    358,'1 ',1,   1,   1,   100.000,    35.000,     0.000,     0.000,     0.000,    -0.000,   1,1
    365,'1 ',1,   1,   1,   125.000,    50.000,     0.000,     0.000,     0.000,    -0.000,   1,1
    366,'1 ',1,   1,   1,   90.000,    30.000,     0.000,     0.000,     0.000,    -0.000,   1,1
    368,'1 ',1,   1,   1,   100.000,    35.000,     0.000,     0.000,     0.000,    -0.000,   1,1
    375,'1 ',1,   1,   1,   125.000,    50.000,     0.000,     0.000,     0.000,    -0.000,   1,1
    376,'1 ',1,   1,   1,   90.000,    30.000,     0.000,     0.000,     0.000,    -0.000,   1,1
    378,'1 ',1,   1,   1,   100.000,    35.000,     0.000,     0.000,     0.000,    -0.000,   1,1
    385,'1 ',1,   1,   1,   125.000,    50.000,     0.000,     0.000,     0.000,    -0.000,   1,1
    386,'1 ',1,   1,   1,   90.000,    30.000,     0.000,     0.000,     0.000,    -0.000,   1,1
    388,'1 ',1,   1,   1,   100.000,    35.000,     0.000,     0.000,     0.000,    -0.000,   1,1
    395,'1 ',1,   1,   1,   125.000,    50.000,     0.000,     0.000,     0.000,    -0.000,   1,1
    396,'1 ',1,   1,   1,   90.000,    30.000,     0.000,     0.000,     0.000,    -0.000,   1,1
    398,'1 ',1,   1,   1,   100.000,    35.000,     0.000,     0.000,     0.000,    -0.000,   1,1
    405,'1 ',1,   1,   1,   125.000,    50.000,     0.000,     0.000,     0.000,    -0.000,   1,1
    406,'1 ',1,   1,   1,   90.000,    30.000,     0.000,     0.000,     0.000,    -0.000,   1,1
    408,'1 ',1,   1,   1,   100.000,    35.000,     0.000,     0.000,     0.000,    -0.000,   1,1
    415,'1 ',1,   1,   1,   125.000,    50.000,     0.000,     0.000,     0.000,    -0.000,   1,1
    416,'1 ',1,   1,   1,   90.000,    30.000,     0.000,     0.000,     0.000,    -0.000,   1,1
    418,'1 ',1,   1,   1,   100.000,    35.000,     0.000,     0.000,     0.000,    -0.000,   1,1
    425,'1 ',1,   1,   1,   125.000,    50.000,     0.000,     0.000,     0.000,    -0.000,   1,1
    426,'1 ',1,   1,   1,   90.000,    30.000,     0.000,     0.000,     0.000,    -0.000,   1,1
    428,'1 ',1,   1,   1,   100.000,    35.000,     0.000,     0.000,     0.000,    -0.000,   1,1
    435,'1 ',1,   1,   1,   125.000,    50.000,     0.000,     0.000,     0.000,    -0.000,   1,1
    436,'1 ',1,   1,   1,   90.000,    30.000,     0.000,     0.000,     0.000,    -0.000,   1,1
    438,'1 ',1,   1,   1,   100.000,    35.000,     0.000,     0.000,     0.000,    -0.000,   1,1
    445,'1 ',1,   1,   1,   125.000,    50.000,     0.000,     0.000,     0.000,    -0.000,   1,1
    446,'1 ',1,   1,   1,   90.000,    30.000,     0.000,     0.000,     0.000,    -0.000,   1,1
    448,'1 ',1,   1,   1,   100.000,    35.000,     0.000,     0.000,     0.000,    -0.000,   1,1
    455,'1 ',1,   1,   1,   125.000,    50.000,     0.000,     0.000,     0.000,    -0.000,   1,1
    456,'1 ',1,   1,   1,   90.000,    30.000,     0.000,     0.000,     0.000,    -0.000,   1,1
    458,'1 ',1,   1,   1,   100.000,    35.000,     0.000,     0.000,     0.000,    -0.000,   1,1
    465,'1 ',1,   1,   1,   125.000,    50.000,     0.000,     0.000,     0.000,    -0.000,   1,1
    466,'1 ',1,   1,   1,   90.000,    30.000,     0.000,     0.000,     0.000,    -0.000,   1,1
    468,'1 ',1,   1,   1,   100.000,    35.000,     0.000,     0.000,     0.000,    -0.000,   1,1
    475,'1 ',1,   1,   1,   125.000,    50.000,     0.000,     0.000,     0.000,    -0.000,   1,1
    476,'1 ',1,   1,   1,   90.000,    30.000,     0.000,     0.000,     0.000,    -0.000,   1,1
    478,'1 ',1,   1,   1,   100.000,    35.000,     0.000,     0.000,     0.000,    -0.000,   1,1
    485,'1 ',1,   1,   1,   125.000,    50.000,     0.000,     0.000,     0.000,    -0.000,   1,1
    486,'1 ',1,   1,   1,   90.000,    30.000,     0.000,     0.000,     0.000,    -0.000,   1,1
    488,'1 ',1,   1,   1,   100.000,    35.000,     0.000,     0.000,     0.000,    -0.000,   1,1
    495,'1 ',1,   1,   1,   125.000,    50.000,     0.000,     0.000,     0.000,    -0.000,   1,1
    496,'1 ',1,   1,   1,   90.000,    30.000,     0.000,     0.000,     0.000,    -0.000,   1,1
    498,'1 ',1,   1,   1,   100.000,    35.000,     0.000,     0.000,     0.000,    -0.000,   1,1
    505,'1 ',1,   1,   1,   125.000,    50.000,     0.000,     0.000,     0.000,    -0.000,   1,1
    506,'1 ',1,   1,   1,   90.000,    30.000,     0.000,     0.000,     0.000,    -0.000,   1,1
    508,'1 ',1,   1,   1,   100.000,    35.000,     0.000,     0.000,     0.000,    -0.000,   1,1
    515,'1 ',1,   1,   1,   125.000,    50.000,     0.000,     0.000,     0.000,    -0.000,   1,1
    516,'1 ',1,   1,   1,   90.000,    30.000,     0.000,     0.000,     0.000,    -0.000,   1,1
    518,'1 ',1,   1,   1,   100.000,    35.000,     0.000,     0.000,     0.000,    -0.000,   1,1
    525,'1 ',1,   1,   1,   125.000,    50.000,     0.000,     0.000,     0.000,    -0.000,   1,1
    526,'1 ',1,   1,   1,   90.000,    30.000,     0.000,     0.000,     0.000,    -0.000,   1,1
    528,'1 ',1,   1,   1,   100.000,    35.000,     0.000,     0.000,     0.000,    -0.000,   1,1
    535,'1 ',1,   1,   1,   125.000,    50.000,     0.000,     0.000,     0.000,    -0.000,   1,1
    536,'1 ',1,   1,   1,   90.000,    30.000,     0.000,     0.000,     0.000,    -0.000,   1,1
    538,'1 ',1,   1,   1,   100.000,    35.000,     0.000,     0.000,     0.000,    -0.000,   1,1
    545,'1 ',1,   1,   1,   125.000,    50.000,     0.000,     0.000,     0.000,    -0.000,   1,1
    546,'1 ',1,   1,   1,   90.000,    30.000,     0.000,     0.000,     0.000,    -0.000,   1,1
    548,'1 ',1,   1,   1,   100.000,    35.000,     0.000,     0.000,     0.000,    -0.000,   1,1
    555,'1 ',1,   1,   1,   125.000,    50.000,     0.000,     0.000,     0.000,    -0.000,   1,1
    556,'1 ',1,   1,   1,   90.000,    30.000,     0.000,     0.000,     0.000,    -0.000,   1,1
    558,'1 ',1,   1,   1,   100.000,    35.000,     0.000,     0.000,     0.000,    -0.000,   1,1
    565,'1 ',1,   1,   1,   125.000,    50.000,     0.000,     0.000,     0.000,    -0.000,   1,1
    566,'1 ',1,   1,   1,   90.000,    30.000,     0.000,     0.000,     0.000,    -0.000,   1,1
    568,'1 ',1,   1,   1,   100.000,    35.000,     0.000,     0.000,     0.000,    -0.000,   1,1
    575,'1 ',1,   1,   1,   125.000,    50.000,     0.000,     0.000,     0.000,    -0.000,   1,1
    576,'1 ',1,   1,   1,   90.000,    30.000,     0.000,     0.000,     0.000,    -0.000,   1,1
    578,'1 ',1,   1,   1,   100.000,    35.000,     0.000,     0.000,     0.000,    -0.000,   1,1
    585,'1 ',1,   1,   1,   125.000,    50.000,     0.000,     0.000,     0.000,    -0.000,   1,1
    586,'1 ',1,   1,   1,   90.000,    30.000,     0.000,     0.000,     0.000,    -0.000,   1,1
    588,'1 ',1,   1,   1,   100.000,    35.000,     0.000,     0.000,     0.000,    -0.000,   1,1
    595,'1 ',1,   1,   1,   125.000,    50.000,     0.000,     0.000,     0.000,    -0.000,   1,1
    596,'1 ',1,   1,   1,   90.000,    30.000,     0.000,     0.000,     0.000,    -0.000,   1,1
    598,'1 ',1,   1,   1,   100.000,    35.000,     0.000,     0.000,     0.000,    -0.000,   1,1
    605,'1 ',1,   1,   1,   125.000,    50.000,     0.000,     0.000,     0.000,    -0.000,   1,1
    606,'1 ',1,   1,   1,   90.000,    30.000,     0.000,     0.000,     0.000,    -0.000,   1,1
    608,'1 ',1,   1,   1,   100.000,    35.000,     0.000,     0.000,     0.000,    -0.000,   1,1
    615,'1 ',1,   1,   1,   125.000,    50.000,     0.000,     0.000,     0.000,    -0.000,   1,1
    616,'1 ',1,   1,   1,   90.000,    30.000,     0.000,     0.000,     0.000,    -0.000,   1,1
    618,'1 ',1,   1,   1,   100.000,    35.000,     0.000,     0.000,     0.000,    -0.000,   1,1
    625,'1 ',1,   1,   1,   125.000,    50.000,     0.000,     0.000,     0.000,    -0.000,   1,1
    626,'1 ',1,   1,   1,   90.000,    30.000,     0.000,     0.000,     0.000,    -0.000,   1,1
    628,'1 ',1,   1,   1,   100.000,    35.000,     0.000,     0.000,     0.000,    -0.000,   1,1
    635,'1 ',1,   1,   1,   125.000,    50.000,     0.000,     0.000,     0.000,    -0.000,   1,1
    636,'1 ',1,   1,   1,   90.000,    30.000,     0.000,     0.000,     0.000,    -0.000,   1,1
    638,'1 ',1,   1,   1,   100.000,    35.000,     0.000,     0.000,     0.000,    -0.000,   1,1
0 / END OF LOAD DATA, BEGIN FIXED SHUNT DATA
0 / END OF FIXED SHUNT DATA, BEGIN GENERATOR DATA
    1,'1 ',    71.627,    27.915,  9900.000, -9900.000,1.04000,    0,   500.000,   0.00000,   1.00000,   0.00000,   0.00000,1.00000,1,  100.0,   450.000,     0.000,   1,1.0000,   0,1.0000,   0,1.0000,   0,1.0000,0, 1.0000
    2,'1 ',   163.000,     4.903,  9900.000, -9900.000,1.02500,    0,   250.000,   0.00000,   1.00000,   0.00000,   0.00000,1.00000,1,  100.0,   240.000,     0.000,   1,1.0000,   0,1.0000,   0,1.0000,   0,1.0000,0, 1.0000
    3,'1 ',    85.000,   -11.449,  9900.000, -9900.000,1.02500,    0,   100.000,   0.00000,   1.00000,   0.00000,   0.00000,1.00000,1,  100.0,    90.000,     0.000,   1,1.0000,   0,1.0000,   0,1.0000,   0,1.0000,0, 1.0000
    11,'1 ',    71.627,    27.915,  9900.000, -9900.000,1.04000,    0,   500.000,   0.00000,   1.00000,   0.00000,   0.00000,1.00000,1,  100.0,   450.000,     0.000,   1,1.0000,   0,1.0000,   0,1.0000,   0,1.0000,0, 1.0000
    12,'1 ',   163.000,     4.903,  9900.000, -9900.000,1.02500,    0,   250.000,   0.00000,   1.00000,   0.00000,   0.00000,1.00000,1,  100.0,   240.000,     0.000,   1,1.0000,   0,1.0000,   0,1.0000,   0,1.0000,0, 1.0000
    13,'1 ',    85.000,   -11.449,  9900.000, -9900.000,1.02500,    0,   100.000,   0.00000,   1.00000,   0.00000,   0.00000,1.00000,1,  100.0,    90.000,     0.000,   1,1.0000,   0,1.0000,   0,1.0000,   0,1.0000,0, 1.0000
    21,'1 ',    71.627,    27.915,  9900.000, -9900.000,1.04000,    0,   500.000,   0.00000,   1.00000,   0.00000,   0.00000,1.00000,1,  100.0,   450.000,     0.000,   1,1.0000,   0,1.0000,   0,1.0000,   0,1.0000,0, 1.0000
    22,'1 ',   163.000,     4.903,  9900.000, -9900.000,1.02500,    0,   250.000,   0.00000,   1.00000,   0.00000,   0.00000,1.00000,1,  100.0,   240.000,     0.000,   1,1.0000,   0,1.0000,   0,1.0000,   0,1.0000,0, 1.0000
    23,'1 ',    85.000,   -11.449,  9900.000, -9900.000,1.02500,    0,   100.000,   0.00000,   1.00000,   0.00000,   0.00000,1.00000,1,  100.0,    90.000,     0.000,   1,1.0000,   0,1.0000,   0,1.0000,   0,1.0000,0, 1.0000
    31,'1 ',    71.627,    27.915,  9900.000, -9900.000,1.04000,    0,   500.000,   0.00000,   1.00000,   0.00000,   0.00000,1.00000,1,  100.0,   450.000,     0.000,   1,1.0000,   0,1.0000,   0,1.0000,   0,1.0000,0, 1.0000
    32,'1 ',   163.000,     4.903,  9900.000, -9900.000,1.02500,    0,   250.000,   0.00000,   1.00000,   0.00000,   0.00000,1.00000,1,  100.0,   240.000,     0.000,   1,1.0000,   0,1.0000,   0,1.0000,   0,1.0000,0, 1.0000
    33,'1 ',    85.000,   -11.449,  9900.000, -9900.000,1.02500,    0,   100.000,   0.00000,   1.00000,   0.00000,   0.00000,1.00000,1,  100.0,    90.000,     0.000,   1,1.0000,   0,1.0000,   0,1.0000,   0,1.0000,0, 1.0000
    41,'1 ',    71.627,    27.915,  9900.000, -9900.000,1.04000,    0,   500.000,   0.00000,   1.00000,   0.00000,   0.00000,1.00000,1,  100.0,   450.000,     0.000,   1,1.0000,   0,1.0000,   0,1.0000,   0,1.0000,0, 1.0000
    42,'1 ',   163.000,     4.903,  9900.000, -9900.000,1.02500,    0,   250.000,   0.00000,   1.00000,   0.00000,   0.00000,1.00000,1,  100.0,   240.000,     0.000,   1,1.0000,   0,1.0000,   0,1.0000,   0,1.0000,0, 1.0000
    43,'1 ',    85.000,   -11.449,  9900.000, -9900.000,1.02500,    0,   100.000,   0.00000,   1.00000,   0.00000,   0.00000,1.00000,1,  100.0,    90.000,     0.000,   1,1.0000,   0,1.0000,   0,1.0000,   0,1.0000,0, 1.0000
    51,'1 ',    71.627,    27.915,  9900.000, -9900.000,1.04000,    0,   500.000,   0.00000,   1.00000,   0.00000,   0.00000,1.00000,1,  100.0,   450.000,     0.000,   1,1.0000,   0,1.0000,   0,1.0000,   0,1.0000,0, 1.0000
    52,'1 ',   163.000,     4.903,  9900.000, -9900.000,1.02500,    0,   250.000,   0.00000,   1.00000,   0.00000,   0.00000,1.00000,1,  100.0,   240.000,     0.000,   1,1.0000,   0,1.0000,   0,1.0000,   0,1.0000,0, 1.0000
    53,'1 ',    85.000,   -11.449,  9900.000, -9900.000,1.02500,    0,   100.000,   0.00000,   1.00000,   0.00000,   0.00000,1.00000,1,  100.0,    90.000,     0.000,   1,1.0000,   0,1.0000,   0,1.0000,   0,1.0000,0, 1.0000
    61,'1 ',    71.627,    27.915,  9900.000, -9900.000,1.04000,    0,   500.000,   0.00000,   1.00000,   0.00000,   0.00000,1.00000,1,  100.0,   450.000,     0.000,   1,1.0000,   0,1.0000,   0,1.0000,   0,1.0000,0, 1.0000
    62,'1 ',   163.000,     4.903,  9900.000, -9900.000,1.02500,    0,   250.000,   0.00000,   1.00000,   0.00000,   0.00000,1.00000,1,  100.0,   240.000,     0.000,   1,1.0000,   0,1.0000,   0,1.0000,   0,1.0000,0, 1.0000
    63,'1 ',    85.000,   -11.449,  9900.000, -9900.000,1.02500,    0,   100.000,   0.00000,   1.00000,   0.00000,   0.00000,1.00000,1,  100.0,    90.000,     0.000,   1,1.0000,   0,1.0000,   0,1.0000,   0,1.0000,0, 1.0000
    71,'1 ',    71.627,    27.915,  9900.000, -9900.000,1.04000,    0,   500.000,   0.00000,   1.00000,   0.00000,   0.00000,1.00000,1,  100.0,   450.000,     0.000,   1,1.0000,   0,1.0000,   0,1.0000,   0,1.0000,0, 1.0000
    72,'1 ',   163.000,     4.903,  9900.000, -9900.000,1.02500,    0,   250.000,   0.00000,   1.00000,   0.00000,   0.00000,1.00000,1,  100.0,   240.000,     0.000,   1,1.0000,   0,1.0000,   0,1.0000,   0,1.0000,0, 1.0000
    73,'1 ',    85.000,   -11.449,  9900.000, -9900.000,1.02500,    0,   100.000,   0.00000,   1.00000,   0.00000,   0.00000,1.00000,1,  100.0,    90.000,     0.000,   1,1.0000,   0,1.0000,   0,1.0000,   0,1.0000,0, 1.0000
    81,'1 ',    71.627,    27.915,  9900.000, -9900.000,1.04000,    0,   500.000,   0.00000,   1.00000,   0.00000,   0.00000,1.00000,1,  100.0,   450.000,     0.000,   1,1.0000,   0,1.0000,   0,1.0000,   0,1.0000,0, 1.0000
    82,'1 ',   163.000,     4.903,  9900.000, -9900.000,1.02500,    0,   250.000,   0.00000,   1.00000,   0.00000,   0.00000,1.00000,1,  100.0,   240.000,     0.000,   1,1.0000,   0,1.0000,   0,1.0000,   0,1.0000,0, 1.0000
    83,'1 ',    85.000,   -11.449,  9900.000, -9900.000,1.02500,    0,   100.000,   0.00000,   1.00000,   0.00000,   0.00000,1.00000,1,  100.0,    90.000,     0.000,   1,1.0000,   0,1.0000,   0,1.0000,   0,1.0000,0, 1.0000
    91,'1 ',    71.627,    27.915,  9900.000, -9900.000,1.04000,    0,   500.000,   0.00000,   1.00000,   0.00000,   0.00000,1.00000,1,  100.0,   450.000,     0.000,   1,1.0000,   0,1.0000,   0,1.0000,   0,1.0000,0, 1.0000
    92,'1 ',   163.000,     4.903,  9900.000, -9900.000,1.02500,    0,   250.000,   0.00000,   1.00000,   0.00000,   0.00000,1.00000,1,  100.0,   240.000,     0.000,   1,1.0000,   0,1.0000,   0,1.0000,   0,1.0000,0, 1.0000
    93,'1 ',    85.000,   -11.449,  9900.000, -9900.000,1.02500,    0,   100.000,   0.00000,   1.00000,   0.00000,   0.00000,1.00000,1,  100.0,    90.000,     0.000,   1,1.0000,   0,1.0000,   0,1.0000,   0,1.0000,0, 1.0000
    101,'1 ',    71.627,    27.915,  9900.000, -9900.000,1.04000,    0,   500.000,   0.00000,   1.00000,   0.00000,   0.00000,1.00000,1,  100.0,   450.000,     0.000,   1,1.0000,   0,1.0000,   0,1.0000,   0,1.0000,0, 1.0000
    102,'1 ',   163.000,     4.903,  9900.000, -9900.000,1.02500,    0,   250.000,   0.00000,   1.00000,   0.00000,   0.00000,1.00000,1,  100.0,   240.000,     0.000,   1,1.0000,   0,1.0000,   0,1.0000,   0,1.0000,0, 1.0000
    103,'1 ',    85.000,   -11.449,  9900.000, -9900.000,1.02500,    0,   100.000,   0.00000,   1.00000,   0.00000,   0.00000,1.00000,1,  100.0,    90.000,     0.000,   1,1.0000,   0,1.0000,   0,1.0000,   0,1.0000,0, 1.0000
    111,'1 ',    71.627,    27.915,  9900.000, -9900.000,1.04000,    0,   500.000,   0.00000,   1.00000,   0.00000,   0.00000,1.00000,1,  100.0,   450.000,     0.000,   1,1.0000,   0,1.0000,   0,1.0000,   0,1.0000,0, 1.0000
    112,'1 ',   163.000,     4.903,  9900.000, -9900.000,1.02500,    0,   250.000,   0.00000,   1.00000,   0.00000,   0.00000,1.00000,1,  100.0,   240.000,     0.000,   1,1.0000,   0,1.0000,   0,1.0000,   0,1.0000,0, 1.0000
    113,'1 ',    85.000,   -11.449,  9900.000, -9900.000,1.02500,    0,   100.000,   0.00000,   1.00000,   0.00000,   0.00000,1.00000,1,  100.0,    90.000,     0.000,   1,1.0000,   0,1.0000,   0,1.0000,   0,1.0000,0, 1.0000
    121,'1 ',    71.627,    27.915,  9900.000, -9900.000,1.04000,    0,   500.000,   0.00000,   1.00000,   0.00000,   0.00000,1.00000,1,  100.0,   450.000,     0.000,   1,1.0000,   0,1.0000,   0,1.0000,   0,1.0000,0, 1.0000
    122,'1 ',   163.000,     4.903,  9900.000, -9900.000,1.02500,    0,   250.000,   0.00000,   1.00000,   0.00000,   0.00000,1.00000,1,  100.0,   240.000,     0.000,   1,1.0000,   0,1.0000,   0,1.0000,   0,1.0000,0, 1.0000
    123,'1 ',    85.000,   -11.449,  9900.000, -9900.000,1.02500,    0,   100.000,   0.00000,   1.00000,   0.00000,   0.00000,1.00000,1,  100.0,    90.000,     0.000,   1,1.0000,   0,1.0000,   0,1.0000,   0,1.0000,0, 1.0000
    131,'1 ',    71.627,    27.915,  9900.000, -9900.000,1.04000,    0,   500.000,   0.00000,   1.00000,   0.00000,   0.00000,1.00000,1,  100.0,   450.000,     0.000,   1,1.0000,   0,1.0000,   0,1.0000,   0,1.0000,0, 1.0000
    132,'1 ',   163.000,     4.903,  9900.000, -9900.000,1.02500,    0,   250.000,   0.00000,   1.00000,   0.00000,   0.00000,1.00000,1,  100.0,   240.000,     0.000,   1,1.0000,   0,1.0000,   0,1.0000,   0,1.0000,0, 1.0000
    133,'1 ',    85.000,   -11.449,  9900.000, -9900.000,1.02500,    0,   100.000,   0.00000,   1.00000,   0.00000,   0.00000,1.00000,1,  100.0,    90.000,     0.000,   1,1.0000,   0,1.0000,   0,1.0000,   0,1.0000,0, 1.0000
    141,'1 ',    71.627,    27.915,  9900.000, -9900.000,1.04000,    0,   500.000,   0.00000,   1.00000,   0.00000,   0.00000,1.00000,1,  100.0,   450.000,     0.000,   1,1.0000,   0,1.0000,   0,1.0000,   0,1.0000,0, 1.0000
    142,'1 ',   163.000,     4.903,  9900.000, -9900.000,1.02500,    0,   250.000,   0.00000,   1.00000,   0.00000,   0.00000,1.00000,1,  100.0,   240.000,     0.000,   1,1.0000,   0,1.0000,   0,1.0000,   0,1.0000,0, 1.0000
    143,'1 ',    85.000,   -11.449,  9900.000, -9900.000,1.02500,    0,   100.000,   0.00000,   1.00000,   0.00000,   0.00000,1.00000,1,  100.0,    90.000,     0.000,   1,1.0000,   0,1.0000,   0,1.0000,   0,1.0000,0, 1.0000
    151,'1 ',    71.627,    27.915,  9900.000, -9900.000,1.04000,    0,   500.000,   0.00000,   1.00000,   0.00000,   0.00000,1.00000,1,  100.0,   450.000,     0.000,   1,1.0000,   0,1.0000,   0,1.0000,   0,1.0000,0, 1.0000
    152,'1 ',   163.000,     4.903,  9900.000, -9900.000,1.02500,    0,   250.000,   0.00000,   1.00000,   0.00000,   0.00000,1.00000,1,  100.0,   240.000,     0.000,   1,1.0000,   0,1.0000,   0,1.0000,   0,1.0000,0, 1.0000
    153,'1 ',    85.000,   -11.449,  9900.000, -9900.000,1.02500,    0,   100.000,   0.00000,   1.00000,   0.00000,   0.00000,1.00000,1,  100.0,    90.000,     0.000,   1,1.0000,   0,1.0000,   0,1.0000,   0,1.0000,0, 1.0000
    161,'1 ',    71.627,    27.915,  9900.000, -9900.000,1.04000,    0,   500.000,   0.00000,   1.00000,   0.00000,   0.00000,1.00000,1,  100.0,   450.000,     0.000,   1,1.0000,   0,1.0000,   0,1.0000,   0,1.0000,0, 1.0000
    162,'1 ',   163.000,     4.903,  9900.000, -9900.000,1.02500,    0,   250.000,   0.00000,   1.00000,   0.00000,   0.00000,1.00000,1,  100.0,   240.000,     0.000,   1,1.0000,   0,1.0000,   0,1.0000,   0,1.0000,0, 1.0000
    163,'1 ',    85.000,   -11.449,  9900.000, -9900.000,1.02500,    0,   100.000,   0.00000,   1.00000,   0.00000,   0.00000,1.00000,1,  100.0,    90.000,     0.000,   1,1.0000,   0,1.0000,   0,1.0000,   0,1.0000,0, 1.0000
    171,'1 ',    71.627,    27.915,  9900.000, -9900.000,1.04000,    0,   500.000,   0.00000,   1.00000,   0.00000,   0.00000,1.00000,1,  100.0,   450.000,     0.000,   1,1.0000,   0,1.0000,   0,1.0000,   0,1.0000,0, 1.0000
    172,'1 ',   163.000,     4.903,  9900.000, -9900.000,1.02500,    0,   250.000,   0.00000,   1.00000,   0.00000,   0.00000,1.00000,1,  100.0,   240.000,     0.000,   1,1.0000,   0,1.0000,   0,1.0000,   0,1.0000,0, 1.0000
    173,'1 ',    85.000,   -11.449,  9900.000, -9900.000,1.02500,    0,   100.000,   0.00000,   1.00000,   0.00000,   0.00000,1.00000,1,  100.0,    90.000,     0.000,   1,1.0000,   0,1.0000,   0,1.0000,   0,1.0000,0, 1.0000
    181,'1 ',    71.627,    27.915,  9900.000, -9900.000,1.04000,    0,   500.000,   0.00000,   1.00000,   0.00000,   0.00000,1.00000,1,  100.0,   450.000,     0.000,   1,1.0000,   0,1.0000,   0,1.0000,   0,1.0000,0, 1.0000
    182,'1 ',   163.000,     4.903,  9900.000, -9900.000,1.02500,    0,   250.000,   0.00000,   1.00000,   0.00000,   0.00000,1.00000,1,  100.0,   240.000,     0.000,   1,1.0000,   0,1.0000,   0,1.0000,   0,1.0000,0, 1.0000
    183,'1 ',    85.000,   -11.449,  9900.000, -9900.000,1.02500,    0,   100.000,   0.00000,   1.00000,   0.00000,   0.00000,1.00000,1,  100.0,    90.000,     0.000,   1,1.0000,   0,1.0000,   0,1.0000,   0,1.0000,0, 1.0000
    191,'1 ',    71.627,    27.915,  9900.000, -9900.000,1.04000,    0,   500.000,   0.00000,   1.00000,   0.00000,   0.00000,1.00000,1,  100.0,   450.000,     0.000,   1,1.0000,   0,1.0000,   0,1.0000,   0,1.0000,0, 1.0000
    192,'1 ',   163.000,     4.903,  9900.000, -9900.000,1.02500,    0,   250.000,   0.00000,   1.00000,   0.00000,   0.00000,1.00000,1,  100.0,   240.000,     0.000,   1,1.0000,   0,1.0000,   0,1.0000,   0,1.0000,0, 1.0000
    193,'1 ',    85.000,   -11.449,  9900.000, -9900.000,1.02500,    0,   100.000,   0.00000,   1.00000,   0.00000,   0.00000,1.00000,1,  100.0,    90.000,     0.000,   1,1.0000,   0,1.0000,   0,1.0000,   0,1.0000,0, 1.0000
    201,'1 ',    71.627,    27.915,  9900.000, -9900.000,1.04000,    0,   500.000,   0.00000,   1.00000,   0.00000,   0.00000,1.00000,1,  100.0,   450.000,     0.000,   1,1.0000,   0,1.0000,   0,1.0000,   0,1.0000,0, 1.0000
    202,'1 ',   163.000,     4.903,  9900.000, -9900.000,1.02500,    0,   250.000,   0.00000,   1.00000,   0.00000,   0.00000,1.00000,1,  100.0,   240.000,     0.000,   1,1.0000,   0,1.0000,   0,1.0000,   0,1.0000,0, 1.0000
    203,'1 ',    85.000,   -11.449,  9900.000, -9900.000,1.02500,    0,   100.000,   0.00000,   1.00000,   0.00000,   0.00000,1.00000,1,  100.0,    90.000,     0.000,   1,1.0000,   0,1.0000,   0,1.0000,   0,1.0000,0, 1.0000
    211,'1 ',    71.627,    27.915,  9900.000, -9900.000,1.04000,    0,   500.000,   0.00000,   1.00000,   0.00000,   0.00000,1.00000,1,  100.0,   450.000,     0.000,   1,1.0000,   0,1.0000,   0,1.0000,   0,1.0000,0, 1.0000
    212,'1 ',   163.000,     4.903,  9900.000, -9900.000,1.02500,    0,   250.000,   0.00000,   1.00000,   0.00000,   0.00000,1.00000,1,  100.0,   240.000,     0.000,   1,1.0000,   0,1.0000,   0,1.0000,   0,1.0000,0, 1.0000
    213,'1 ',    85.000,   -11.449,  9900.000, -9900.000,1.02500,    0,   100.000,   0.00000,   1.00000,   0.00000,   0.00000,1.00000,1,  100.0,    90.000,     0.000,   1,1.0000,   0,1.0000,   0,1.0000,   0,1.0000,0, 1.0000
    221,'1 ',    71.627,    27.915,  9900.000, -9900.000,1.04000,    0,   500.000,   0.00000,   1.00000,   0.00000,   0.00000,1.00000,1,  100.0,   450.000,     0.000,   1,1.0000,   0,1.0000,   0,1.0000,   0,1.0000,0, 1.0000
    222,'1 ',   163.000,     4.903,  9900.000, -9900.000,1.02500,    0,   250.000,   0.00000,   1.00000,   0.00000,   0.00000,1.00000,1,  100.0,   240.000,     0.000,   1,1.0000,   0,1.0000,   0,1.0000,   0,1.0000,0, 1.0000
    223,'1 ',    85.000,   -11.449,  9900.000, -9900.000,1.02500,    0,   100.000,   0.00000,   1.00000,   0.00000,   0.00000,1.00000,1,  100.0,    90.000,     0.000,   1,1.0000,   0,1.0000,   0,1.0000,   0,1.0000,0, 1.0000
    231,'1 ',    71.627,    27.915,  9900.000, -9900.000,1.04000,    0,   500.000,   0.00000,   1.00000,   0.00000,   0.00000,1.00000,1,  100.0,   450.000,     0.000,   1,1.0000,   0,1.0000,   0,1.0000,   0,1.0000,0, 1.0000
    232,'1 ',   163.000,     4.903,  9900.000, -9900.000,1.02500,    0,   250.000,   0.00000,   1.00000,   0.00000,   0.00000,1.00000,1,  100.0,   240.000,     0.000,   1,1.0000,   0,1.0000,   0,1.0000,   0,1.0000,0, 1.0000
    233,'1 ',    85.000,   -11.449,  9900.000, -9900.000,1.02500,    0,   100.000,   0.00000,   1.00000,   0.00000,   0.00000,1.00000,1,  100.0,    90.000,     0.000,   1,1.0000,   0,1.0000,   0,1.0000,   0,1.0000,0, 1.0000
    241,'1 ',    71.627,    27.915,  9900.000, -9900.000,1.04000,    0,   500.000,   0.00000,   1.00000,   0.00000,   0.00000,1.00000,1,  100.0,   450.000,     0.000,   1,1.0000,   0,1.0000,   0,1.0000,   0,1.0000,0, 1.0000
    242,'1 ',   163.000,     4.903,  9900.000, -9900.000,1.02500,    0,   250.000,   0.00000,   1.00000,   0.00000,   0.00000,1.00000,1,  100.0,   240.000,     0.000,   1,1.0000,   0,1.0000,   0,1.0000,   0,1.0000,0, 1.0000
    243,'1 ',    85.000,   -11.449,  9900.000, -9900.000,1.02500,    0,   100.000,   0.00000,   1.00000,   0.00000,   0.00000,1.00000,1,  100.0,    90.000,     0.000,   1,1.0000,   0,1.0000,   0,1.0000,   0,1.0000,0, 1.0000
    251,'1 ',    71.627,    27.915,  9900.000, -9900.000,1.04000,    0,   500.000,   0.00000,   1.00000,   0.00000,   0.00000,1.00000,1,  100.0,   450.000,     0.000,   1,1.0000,   0,1.0000,   0,1.0000,   0,1.0000,0, 1.0000
    252,'1 ',   163.000,     4.903,  9900.000, -9900.000,1.02500,    0,   250.000,   0.00000,   1.00000,   0.00000,   0.00000,1.00000,1,  100.0,   240.000,     0.000,   1,1.0000,   0,1.0000,   0,1.0000,   0,1.0000,0, 1.0000
    253,'1 ',    85.000,   -11.449,  9900.000, -9900.000,1.02500,    0,   100.000,   0.00000,   1.00000,   0.00000,   0.00000,1.00000,1,  100.0,    90.000,     0.000,   1,1.0000,   0,1.0000,   0,1.0000,   0,1.0000,0, 1.0000
    261,'1 ',    71.627,    27.915,  9900.000, -9900.000,1.04000,    0,   500.000,   0.00000,   1.00000,   0.00000,   0.00000,1.00000,1,  100.0,   450.000,     0.000,   1,1.0000,   0,1.0000,   0,1.0000,   0,1.0000,0, 1.0000
    262,'1 ',   163.000,     4.903,  9900.000, -9900.000,1.02500,    0,   250.000,   0.00000,   1.00000,   0.00000,   0.00000,1.00000,1,  100.0,   240.000,     0.000,   1,1.0000,   0,1.0000,   0,1.0000,   0,1.0000,0, 1.0000
    263,'1 ',    85.000,   -11.449,  9900.000, -9900.000,1.02500,    0,   100.000,   0.00000,   1.00000,   0.00000,   0.00000,1.00000,1,  100.0,    90.000,     0.000,   1,1.0000,   0,1.0000,   0,1.0000,   0,1.0000,0, 1.0000
    271,'1 ',    71.627,    27.915,  9900.000, -9900.000,1.04000,    0,   500.000,   0.00000,   1.00000,   0.00000,   0.00000,1.00000,1,  100.0,   450.000,     0.000,   1,1.0000,   0,1.0000,   0,1.0000,   0,1.0000,0, 1.0000
    272,'1 ',   163.000,     4.903,  9900.000, -9900.000,1.02500,    0,   250.000,   0.00000,   1.00000,   0.00000,   0.00000,1.00000,1,  100.0,   240.000,     0.000,   1,1.0000,   0,1.0000,   0,1.0000,   0,1.0000,0, 1.0000
    273,'1 ',    85.000,   -11.449,  9900.000, -9900.000,1.02500,    0,   100.000,   0.00000,   1.00000,   0.00000,   0.00000,1.00000,1,  100.0,    90.000,     0.000,   1,1.0000,   0,1.0000,   0,1.0000,   0,1.0000,0, 1.0000
    281,'1 ',    71.627,    27.915,  9900.000, -9900.000,1.04000,    0,   500.000,   0.00000,   1.00000,   0.00000,   0.00000,1.00000,1,  100.0,   450.000,     0.000,   1,1.0000,   0,1.0000,   0,1.0000,   0,1.0000,0, 1.0000
    282,'1 ',   163.000,     4.903,  9900.000, -9900.000,1.02500,    0,   250.000,   0.00000,   1.00000,   0.00000,   0.00000,1.00000,1,  100.0,   240.000,     0.000,   1,1.0000,   0,1.0000,   0,1.0000,   0,1.0000,0, 1.0000
    283,'1 ',    85.000,   -11.449,  9900.000, -9900.000,1.02500,    0,   100.000,   0.00000,   1.00000,   0.00000,   0.00000,1.00000,1,  100.0,    90.000,     0.000,   1,1.0000,   0,1.0000,   0,1.0000,   0,1.0000,0, 1.0000
    291,'1 ',    71.627,    27.915,  9900.000, -9900.000,1.04000,    0,   500.000,   0.00000,   1.00000,   0.00000,   0.00000,1.00000,1,  100.0,   450.000,     0.000,   1,1.0000,   0,1.0000,   0,1.0000,   0,1.0000,0, 1.0000
    292,'1 ',   163.000,     4.903,  9900.000, -9900.000,1.02500,    0,   250.000,   0.00000,   1.00000,   0.00000,   0.00000,1.00000,1,  100.0,   240.000,     0.000,   1,1.0000,   0,1.0000,   0,1.0000,   0,1.0000,0, 1.0000
    293,'1 ',    85.000,   -11.449,  9900.000, -9900.000,1.02500,    0,   100.000,   0.00000,   1.00000,   0.00000,   0.00000,1.00000,1,  100.0,    90.000,     0.000,   1,1.0000,   0,1.0000,   0,1.0000,   0,1.0000,0, 1.0000
    301,'1 ',    71.627,    27.915,  9900.000, -9900.000,1.04000,    0,   500.000,   0.00000,   1.00000,   0.00000,   0.00000,1.00000,1,  100.0,   450.000,     0.000,   1,1.0000,   0,1.0000,   0,1.0000,   0,1.0000,0, 1.0000
    302,'1 ',   163.000,     4.903,  9900.000, -9900.000,1.02500,    0,   250.000,   0.00000,   1.00000,   0.00000,   0.00000,1.00000,1,  100.0,   240.000,     0.000,   1,1.0000,   0,1.0000,   0,1.0000,   0,1.0000,0, 1.0000
    303,'1 ',    85.000,   -11.449,  9900.000, -9900.000,1.02500,    0,   100.000,   0.00000,   1.00000,   0.00000,   0.00000,1.00000,1,  100.0,    90.000,     0.000,   1,1.0000,   0,1.0000,   0,1.0000,   0,1.0000,0, 1.0000
    311,'1 ',    71.627,    27.915,  9900.000, -9900.000,1.04000,    0,   500.000,   0.00000,   1.00000,   0.00000,   0.00000,1.00000,1,  100.0,   450.000,     0.000,   1,1.0000,   0,1.0000,   0,1.0000,   0,1.0000,0, 1.0000
    312,'1 ',   163.000,     4.903,  9900.000, -9900.000,1.02500,    0,   250.000,   0.00000,   1.00000,   0.00000,   0.00000,1.00000,1,  100.0,   240.000,     0.000,   1,1.0000,   0,1.0000,   0,1.0000,   0,1.0000,0, 1.0000
    313,'1 ',    85.000,   -11.449,  9900.000, -9900.000,1.02500,    0,   100.000,   0.00000,   1.00000,   0.00000,   0.00000,1.00000,1,  100.0,    90.000,     0.000,   1,1.0000,   0,1.0000,   0,1.0000,   0,1.0000,0, 1.0000
    321,'1 ',    71.627,    27.915,  9900.000, -9900.000,1.04000,    0,   500.000,   0.00000,   1.00000,   0.00000,   0.00000,1.00000,1,  100.0,   450.000,     0.000,   1,1.0000,   0,1.0000,   0,1.0000,   0,1.0000,0, 1.0000
    322,'1 ',   163.000,     4.903,  9900.000, -9900.000,1.02500,    0,   250.000,   0.00000,   1.00000,   0.00000,   0.00000,1.00000,1,  100.0,   240.000,     0.000,   1,1.0000,   0,1.0000,   0,1.0000,   0,1.0000,0, 1.0000
    323,'1 ',    85.000,   -11.449,  9900.000, -9900.000,1.02500,    0,   100.000,   0.00000,   1.00000,   0.00000,   0.00000,1.00000,1,  100.0,    90.000,     0.000,   1,1.0000,   0,1.0000,   0,1.0000,   0,1.0000,0, 1.0000
    331,'1 ',    71.627,    27.915,  9900.000, -9900.000,1.04000,    0,   500.000,   0.00000,   1.00000,   0.00000,   0.00000,1.00000,1,  100.0,   450.000,     0.000,   1,1.0000,   0,1.0000,   0,1.0000,   0,1.0000,0, 1.0000
    332,'1 ',   163.000,     4.903,  9900.000, -9900.000,1.02500,    0,   250.000,   0.00000,   1.00000,   0.00000,   0.00000,1.00000,1,  100.0,   240.000,     0.000,   1,1.0000,   0,1.0000,   0,1.0000,   0,1.0000,0, 1.0000
    333,'1 ',    85.000,   -11.449,  9900.000, -9900.000,1.02500,    0,   100.000,   0.00000,   1.00000,   0.00000,   0.00000,1.00000,1,  100.0,    90.000,     0.000,   1,1.0000,   0,1.0000,   0,1.0000,   0,1.0000,0, 1.0000
    341,'1 ',    71.627,    27.915,  9900.000, -9900.000,1.04000,    0,   500.000,   0.00000,   1.00000,   0.00000,   0.00000,1.00000,1,  100.0,   450.000,     0.000,   1,1.0000,   0,1.0000,   0,1.0000,   0,1.0000,0, 1.0000
    342,'1 ',   163.000,     4.903,  9900.000, -9900.000,1.02500,    0,   250.000,   0.00000,   1.00000,   0.00000,   0.00000,1.00000,1,  100.0,   240.000,     0.000,   1,1.0000,   0,1.0000,   0,1.0000,   0,1.0000,0, 1.0000
    343,'1 ',    85.000,   -11.449,  9900.000, -9900.000,1.02500,    0,   100.000,   0.00000,   1.00000,   0.00000,   0.00000,1.00000,1,  100.0,    90.000,     0.000,   1,1.0000,   0,1.0000,   0,1.0000,   0,1.0000,0, 1.0000
    351,'1 ',    71.627,    27.915,  9900.000, -9900.000,1.04000,    0,   500.000,   0.00000,   1.00000,   0.00000,   0.00000,1.00000,1,  100.0,   450.000,     0.000,   1,1.0000,   0,1.0000,   0,1.0000,   0,1.0000,0, 1.0000
    352,'1 ',   163.000,     4.903,  9900.000, -9900.000,1.02500,    0,   250.000,   0.00000,   1.00000,   0.00000,   0.00000,1.00000,1,  100.0,   240.000,     0.000,   1,1.0000,   0,1.0000,   0,1.0000,   0,1.0000,0, 1.0000
    353,'1 ',    85.000,   -11.449,  9900.000, -9900.000,1.02500,    0,   100.000,   0.00000,   1.00000,   0.00000,   0.00000,1.00000,1,  100.0,    90.000,     0.000,   1,1.0000,   0,1.0000,   0,1.0000,   0,1.0000,0, 1.0000
    361,'1 ',    71.627,    27.915,  9900.000, -9900.000,1.04000,    0,   500.000,   0.00000,   1.00000,   0.00000,   0.00000,1.00000,1,  100.0,   450.000,     0.000,   1,1.0000,   0,1.0000,   0,1.0000,   0,1.0000,0, 1.0000
    362,'1 ',   163.000,     4.903,  9900.000, -9900.000,1.02500,    0,   250.000,   0.00000,   1.00000,   0.00000,   0.00000,1.00000,1,  100.0,   240.000,     0.000,   1,1.0000,   0,1.0000,   0,1.0000,   0,1.0000,0, 1.0000
    363,'1 ',    85.000,   -11.449,  9900.000, -9900.000,1.02500,    0,   100.000,   0.00000,   1.00000,   0.00000,   0.00000,1.00000,1,  100.0,    90.000,     0.000,   1,1.0000,   0,1.0000,   0,1.0000,   0,1.0000,0, 1.0000
    371,'1 ',    71.627,    27.915,  9900.000, -9900.000,1.04000,    0,   500.000,   0.00000,   1.00000,   0.00000,   0.00000,1.00000,1,  100.0,   450.000,     0.000,   1,1.0000,   0,1.0000,   0,1.0000,   0,1.0000,0, 1.0000
    372,'1 ',   163.000,     4.903,  9900.000, -9900.000,1.02500,    0,   250.000,   0.00000,   1.00000,   0.00000,   0.00000,1.00000,1,  100.0,   240.000,     0.000,   1,1.0000,   0,1.0000,   0,1.0000,   0,1.0000,0, 1.0000
    373,'1 ',    85.000,   -11.449,  9900.000, -9900.000,1.02500,    0,   100.000,   0.00000,   1.00000,   0.00000,   0.00000,1.00000,1,  100.0,    90.000,     0.000,   1,1.0000,   0,1.0000,   0,1.0000,   0,1.0000,0, 1.0000
    381,'1 ',    71.627,    27.915,  9900.000, -9900.000,1.04000,    0,   500.000,   0.00000,   1.00000,   0.00000,   0.00000,1.00000,1,  100.0,   450.000,     0.000,   1,1.0000,   0,1.0000,   0,1.0000,   0,1.0000,0, 1.0000
    382,'1 ',   163.000,     4.903,  9900.000, -9900.000,1.02500,    0,   250.000,   0.00000,   1.00000,   0.00000,   0.00000,1.00000,1,  100.0,   240.000,     0.000,   1,1.0000,   0,1.0000,   0,1.0000,   0,1.0000,0, 1.0000
    383,'1 ',    85.000,   -11.449,  9900.000, -9900.000,1.02500,    0,   100.000,   0.00000,   1.00000,   0.00000,   0.00000,1.00000,1,  100.0,    90.000,     0.000,   1,1.0000,   0,1.0000,   0,1.0000,   0,1.0000,0, 1.0000
    391,'1 ',    71.627,    27.915,  9900.000, -9900.000,1.04000,    0,   500.000,   0.00000,   1.00000,   0.00000,   0.00000,1.00000,1,  100.0,   450.000,     0.000,   1,1.0000,   0,1.0000,   0,1.0000,   0,1.0000,0, 1.0000
    392,'1 ',   163.000,     4.903,  9900.000, -9900.000,1.02500,    0,   250.000,   0.00000,   1.00000,   0.00000,   0.00000,1.00000,1,  100.0,   240.000,     0.000,   1,1.0000,   0,1.0000,   0,1.0000,   0,1.0000,0, 1.0000
    393,'1 ',    85.000,   -11.449,  9900.000, -9900.000,1.02500,    0,   100.000,   0.00000,   1.00000,   0.00000,   0.00000,1.00000,1,  100.0,    90.000,     0.000,   1,1.0000,   0,1.0000,   0,1.0000,   0,1.0000,0, 1.0000
    401,'1 ',    71.627,    27.915,  9900.000, -9900.000,1.04000,    0,   500.000,   0.00000,   1.00000,   0.00000,   0.00000,1.00000,1,  100.0,   450.000,     0.000,   1,1.0000,   0,1.0000,   0,1.0000,   0,1.0000,0, 1.0000
    402,'1 ',   163.000,     4.903,  9900.000, -9900.000,1.02500,    0,   250.000,   0.00000,   1.00000,   0.00000,   0.00000,1.00000,1,  100.0,   240.000,     0.000,   1,1.0000,   0,1.0000,   0,1.0000,   0,1.0000,0, 1.0000
    403,'1 ',    85.000,   -11.449,  9900.000, -9900.000,1.02500,    0,   100.000,   0.00000,   1.00000,   0.00000,   0.00000,1.00000,1,  100.0,    90.000,     0.000,   1,1.0000,   0,1.0000,   0,1.0000,   0,1.0000,0, 1.0000
    411,'1 ',    71.627,    27.915,  9900.000, -9900.000,1.04000,    0,   500.000,   0.00000,   1.00000,   0.00000,   0.00000,1.00000,1,  100.0,   450.000,     0.000,   1,1.0000,   0,1.0000,   0,1.0000,   0,1.0000,0, 1.0000
    412,'1 ',   163.000,     4.903,  9900.000, -9900.000,1.02500,    0,   250.000,   0.00000,   1.00000,   0.00000,   0.00000,1.00000,1,  100.0,   240.000,     0.000,   1,1.0000,   0,1.0000,   0,1.0000,   0,1.0000,0, 1.0000
    413,'1 ',    85.000,   -11.449,  9900.000, -9900.000,1.02500,    0,   100.000,   0.00000,   1.00000,   0.00000,   0.00000,1.00000,1,  100.0,    90.000,     0.000,   1,1.0000,   0,1.0000,   0,1.0000,   0,1.0000,0, 1.0000
    421,'1 ',    71.627,    27.915,  9900.000, -9900.000,1.04000,    0,   500.000,   0.00000,   1.00000,   0.00000,   0.00000,1.00000,1,  100.0,   450.000,     0.000,   1,1.0000,   0,1.0000,   0,1.0000,   0,1.0000,0, 1.0000
    422,'1 ',   163.000,     4.903,  9900.000, -9900.000,1.02500,    0,   250.000,   0.00000,   1.00000,   0.00000,   0.00000,1.00000,1,  100.0,   240.000,     0.000,   1,1.0000,   0,1.0000,   0,1.0000,   0,1.0000,0, 1.0000
    423,'1 ',    85.000,   -11.449,  9900.000, -9900.000,1.02500,    0,   100.000,   0.00000,   1.00000,   0.00000,   0.00000,1.00000,1,  100.0,    90.000,     0.000,   1,1.0000,   0,1.0000,   0,1.0000,   0,1.0000,0, 1.0000
...